dss
 OpenBabel06102322103D

 14 13  0  0  0  0  0  0  0  0999 V2000
   33.0651   33.0575   28.8872 S   0  0  1  0  0  0  0  0  0  0  0  0
   33.3251   32.2957   27.6590 O   0  0  0  0  0  0  0  0  0  0  0  0
   33.4550   34.8315   28.5598 C   0  0  0  0  0  0  0  0  0  0  0  0
   31.2357   33.1637   29.0035 C   0  0  0  0  0  0  0  0  0  0  0  0
   30.5768   33.8892   30.5787 S   0  0  0  0  0  0  0  0  0  0  0  0
   34.5231   34.9934   28.3685 H   0  0  0  0  0  0  0  0  0  0  0  0
   32.7920   35.3148   27.8318 H   0  0  0  0  0  0  0  0  0  0  0  0
   33.2049   35.2624   29.5371 H   0  0  0  0  0  0  0  0  0  0  0  0
   30.8794   33.8246   28.2046 H   0  0  0  0  0  0  0  0  0  0  0  0
   30.7781   32.1707   28.9326 H   0  0  0  0  0  0  0  0  0  0  0  0
   28.9907   33.0621   30.7815 C   0  0  0  0  0  0  0  0  0  0  0  0
   28.4217   33.3375   29.8853 H   0  0  0  0  0  0  0  0  0  0  0  0
   29.2632   32.0064   30.8938 H   0  0  0  0  0  0  0  0  0  0  0  0
   28.3458   33.3985   31.6028 H   0  0  0  0  0  0  0  0  0  0  0  0
  1  2  2  6  0  0  0
  1  3  1  0  0  0  0
  1  4  1  0  0  0  0
  3  6  1  0  0  0  0
  3  7  1  0  0  0  0
  3  8  1  0  0  0  0
  4  5  1  0  0  0  0
  4  9  1  0  0  0  0
  4 10  1  0  0  0  0
  5 11  1  0  0  0  0
 11 12  1  0  0  0  0
 11 13  1  0  0  0  0
 11 14  1  0  0  0  0
M  END
$$$$
